Circuit: * C:\Users\e22ma\OneDrive\Documents\GitHub\HomemadeMic\Building_Preamp_4_LM358_SecondStage.asc

Direct Newton iteration failed to find .op point.  (Use ".option noopiter" to skip.)
Starting Gmin stepping
Gmin = 10
Gmin = 1.07374
Gmin = 0.115292
Gmin = 0.0123794
Gmin = 0.00132923
Gmin = 0.000142725
Gmin = 1.5325e-005
Gmin = 1.6455e-006
Gmin = 1.76685e-007
Gmin = 1.89714e-008
Gmin = 2.03704e-009
Gmin = 2.18725e-010
Gmin = 2.34854e-011
Gmin = 2.52173e-012
Gmin = 2.70769e-013
Gmin = 0
Gmin stepping succeeded in finding the operating point.


Date: Thu May 14 23:42:54 2020
Total elapsed time: 2.396 seconds.

tnom = 27
temp = 27
method = trap
totiter = 707
traniter = 0
tranpoints = 0
accept = 0
rejected = 0
matrix size = 76
fillins = 120
solver = Normal
Matrix Compiler1:     537 opcodes
Matrix Compiler2: 8.19 KB object code size  4.6/1.7/[0.8]

