Circuit: * C:\Users\e22ma\OneDrive\Documents\GitHub\HomemadeMic\Building_Preamp_1_OnlyJFET.asc

WARNING: Node VOUT is floating.

WARNING: Less than two connections to node VOUT.  This node is used by C1.
Direct Newton iteration for .op point succeeded.

Date: Sun May 03 23:52:33 2020
Total elapsed time: 0.073 seconds.

tnom = 27
temp = 27
method = trap
totiter = 4
traniter = 0
tranpoints = 0
accept = 0
rejected = 0
matrix size = 8
fillins = 0
solver = Normal
Matrix Compiler1:      16 opcodes
Matrix Compiler2: 560 bytes object code size
