Circuit: * C:\Users\e22ma\OneDrive\Documents\GitHub\HomemadeMic\Building_Preamp_2_LM358_nonInv.asc

Direct Newton iteration for .op point succeeded.

Date: Mon May 04 00:43:15 2020
Total elapsed time: 0.078 seconds.

tnom = 27
temp = 27
method = trap
totiter = 13
traniter = 0
tranpoints = 0
accept = 0
rejected = 0
matrix size = 41
fillins = 40
solver = Normal
Matrix Compiler1:     216 opcodes
Matrix Compiler2: 4.00 KB object code size
