Circuit: * C:\Users\e22ma\OneDrive\Documents\GitHub\HomemadeMic\Building_Preamp_2_LM358.asc

Direct Newton iteration for .op point succeeded.

Date: Mon May 04 00:10:38 2020
Total elapsed time: 0.099 seconds.

tnom = 27
temp = 27
method = trap
totiter = 12
traniter = 0
tranpoints = 0
accept = 0
rejected = 0
matrix size = 41
fillins = 40
solver = Normal
Matrix Compiler1:     215 opcodes
Matrix Compiler2: 3.97 KB object code size
